<?xml version="1.0" encoding="UTF-8"?>

<!-- generated on 2023-11-15 21:35:46 by Eclipse SUMO sumo Version 1.18.0
<configuration xmlns:xsi="http://www.w3.org/2001/XMLSchema-instance" xsi:noNamespaceSchemaLocation="http://sumo.dlr.de/xsd/sumoConfiguration.xsd">

    <input>
        <net-file value="Nguyen-Dupuis/newND.net.xml"/>
        <route-files value="Nguyen-Dupuis/N2_500.rou.xml"/>
        <additional-files value="Nguyen-Dupuis/abc.add.xml"/>
    </input>

    <output>
        <tripinfo-output value="Nguyen-Dupuis/trip_info.xml"/>
    </output>

    <time>
        <step-length value="0.1"/>
    </time>

    <processing>
        <collision.action value="none"/>
    </processing>

    <routing>
        <routing-algorithm value="dijkstra"/>
        <device.rerouting.probability value="1"/>
        <device.rerouting.adaptation-steps value="30"/>
        <device.rerouting.output value="./rerouting.log"/>
    </routing>

    <report>
        <no-warnings value="true"/>
    </report>

    <traci_server>
        <remote-port value="36087"/>
    </traci_server>

</configuration>
-->

<weights xmlns:xsi="http://www.w3.org/2001/XMLSchema-instance" xsi:noNamespaceSchemaLocation="http://sumo.dlr.de/xsd/meandata_file.xsd">
</weights>
